Circuit: * C:\Users\kdono\Downloads\DesignFiles\SPICE Files\LTspice\ACAnalysis.asc

Early termination of direct N-R iteration.
Direct Newton iteration failed to find .op point.  (Use ".option noopiter" to skip.)
Starting Gmin stepping
Gmin = 10
Gmin = 1.07374
Gmin = 0.115292
Gmin = 0.0123794
Gmin = 0.00132923
Gmin = 0.000142725
Gmin = 1.5325e-005
Gmin = 1.6455e-006
Gmin = 1.76685e-007
Gmin = 1.89714e-008
vernier = 0.5
vernier = 0.25
vernier = 0.125
Gmin = 1.86381e-008
vernier = 0.166667
vernier = 0.222222
Gmin = 1.20288e-008
vernier = 0.296296
vernier = 0.395061
Gmin = 6.06272e-009
vernier = 0.526748
Gmin = 2.03944e-009
vernier = 0.702331
vernier = 0.936441
Gmin = 3.63248e-010
vernier = 1
Gmin = 4.05295e-011
Gmin = 4.35182e-012
Gmin = 4.67273e-013
Gmin = 0
Gmin stepping succeeded in finding the operating point.


Date: Sun Sep 19 19:49:41 2021
Total elapsed time: 0.057 seconds.

tnom = 27
temp = 27
method = trap
totiter = 896
traniter = 0
tranpoints = 0
accept = 0
rejected = 0
matrix size = 64
fillins = 92
solver = Normal
Matrix Compiler1:     485 opcodes
Matrix Compiler2: 9.03 KB object code size  0.4/0.4/[0.4]

