Circuit: * G:\My Drive\mechatronics\hydrophone_amp+filter_design\ACSim.asc

WARNING: Less than two connections to node VREF.  This node is used by V6.
Direct Newton iteration failed to find .op point.  (Use ".option noopiter" to skip.)
Starting Gmin stepping
Gmin = 10
Gmin = 1.07374
Gmin = 0.115292
Gmin = 0.0123794
Gmin = 0.00132923
Gmin = 0.000142725
Gmin = 1.5325e-005
Gmin = 1.6455e-006
Gmin = 1.76685e-007
Gmin = 1.89714e-008
vernier = 0.5
vernier = 0.25
vernier = 0.333333
Gmin = 1.43698e-008
vernier = 0.444444
Gmin = 5.68659e-009
vernier = 0.592592
vernier = 0.790123
Gmin = 1.30091e-009
vernier = 1
Gmin = 1.58861e-010
Gmin = 1.70576e-011
Gmin = 1.83154e-012
Gmin = 1.9666e-013
Gmin = 0
Gmin stepping succeeded in finding the operating point.


Date: Sat Sep 25 12:05:48 2021
Total elapsed time: 0.771 seconds.

tnom = 27
temp = 27
method = trap
totiter = 872
traniter = 0
tranpoints = 0
accept = 0
rejected = 0
matrix size = 84
fillins = 107
solver = Normal
Matrix Compiler1:     567 opcodes
Matrix Compiler2: 10.97 KB object code size  0.6/0.8/[0.6]

