Circuit: * G:\My Drive\mechatronics\hydrophone_amp+filter_design\Draft1.asc

Direct Newton iteration for .op point succeeded.

Date: Mon Oct 11 13:33:22 2021
Total elapsed time: 0.086 seconds.

tnom = 27
temp = 27
method = modified trap
totiter = 2091
traniter = 2082
tranpoints = 1042
accept = 1042
rejected = 0
matrix size = 24
fillins = 2
solver = Normal
Matrix Compiler1: 1.55 KB object code size  0.2/0.2/[0.1]
Matrix Compiler2: 2.03 KB object code size  0.2/0.2/[0.2]

