Circuit: * G:\My Drive\mechatronics\hydrophone_amp+filter_design\transientSim.asc

WARNING: Less than two connections to node VREF.  This node is used by V6.
Direct Newton iteration for .op point succeeded.

Date: Sat Dec 04 12:43:25 2021
Total elapsed time: 1.893 seconds.

tnom = 27
temp = 27
method = modified trap
totiter = 41037
traniter = 41021
tranpoints = 15310
accept = 10823
rejected = 4487
matrix size = 85
fillins = 50
solver = Normal
Thread vector: 44.4/24.6[8] 18.7/6.3[8] 7.5/4.0[8] 1.0/3.3[1]  2592/500
Matrix Compiler1: 7.65 KB object code size  9.5/3.6/[2.2]
Matrix Compiler2: 10.02 KB object code size  3.9/3.4/[1.1]

